1

   Abaqus 3DEXPERIENCE R2016x                                  Date 03-Mar-2017   Time 09:06:29
   For use at UNIVERSITY OF CENTRAL FLORIDA under license from Dassault Systemes or its subsidiary.



                         The Abaqus Software is a product of:

                           Dassault Systemes SIMULIA Corp.
                           1301 Atwood Avenue, Suite 101W
                              Johnston, RI 02919, USA
 


                   Available for internal use at UNIVERSITY OF CENTRAL FLORIDA. 
                   The Abaqus Online Support System is accessible
                   through the "My Support" section of the SIMULIA
                   Home Page at http://www.simulia.com.

                   Support policies for academic licenses are described
                   on the SIMULIA web site at
                   http://www.3ds.com/products/simulia/academics/
 
                          On machine CECSHVC6QD2 
                          you are authorized to run
                          Abaqus/Standard until 07-Jun-2017

                          Your site id is: 200000000020795 


 
                    For assistance or any other information you may
                    obtain contact information for your local office
                    from the world wide web at:

                      http://www.3ds.com/products/simulia/locations/

 
                * * * * * * * * * * * * * * * * * * * * * * * * * * * * * * 
                *                                                         * 
                *                   *****************                     * 
                *                   *  N O T I C E  *                     * 
                *                   *****************                     * 
                *                                                         * 
                *                                                         * 
                *                    Abaqus 3DEXPERIENCE R2016x                                   * 
                *                                                         * 
                *          BUILD ID: 2015_09_24-16.31.09 126547           * 
                *                                                         * 
                *                                                         * 
                *  Please make sure you are using release 3DEXPERIENCE R2016x manuals    * 
                *  plus the notes accompanying this release.              * 
                *                                                         * 
                *                                                         * 
                *                                                         * 
                *                                                         * 
                *                                                         * 
                *   This program may not be used for commercial purposes  * 
                *           without payment of a commercial fee.          * 
                *                                                         * 
                * * * * * * * * * * * * * * * * * * * * * * * * * * * * * * 


 



     PROCESSING PART, INSTANCE, AND ASSEMBLY INFORMATION
   *******************************************************


     END PROCESSING PART, INSTANCE, AND ASSEMBLY INFORMATION
   ***********************************************************

  *contourintegral, crackname=H-OUTPUT-2_CRACK-1, contours=10, cracktipnodes



     OPTIONS BEING PROCESSED
   ***************************


  *Heading
  *Node
  *Element, type=CPE4R
  *Element, type=CPE3
  *Element, type=CPE4R
  *Element, type=CPE3
  *Element, type=CPE4R
  *Nset, nset=ASSEMBLY_PART-1-1__PICKEDSET4
  *Nset, nset=ASSEMBLY_PART-1-1__PICKEDSET5
  *Elset, elset=ASSEMBLY_PART-1-1__PICKEDSET4
  *Elset, elset=ASSEMBLY_PART-1-1__PICKEDSET5
  *Nset, nset=ASSEMBLY__PICKEDSET172
  *Nset, nset=ASSEMBLY__PICKEDSET173
  *Nset, nset=ASSEMBLY__PICKEDSET194
  *Nset, nset=ASSEMBLY__PICKEDSET195
  *Nset, nset=ASSEMBLY__PICKEDSET196
  *Nset, nset=ASSEMBLY__PICKEDSET197
  *Elset, elset=ASSEMBLY__PICKEDSET195
  *Elset, elset=ASSEMBLY__PICKEDSET196
  *Elset, elset=ASSEMBLY__PICKEDSET197
  *material, name=ALUMINUM-ISOTROPIC
  *elastic
  *expansion
  *material, name="Corning 7980 Fused Silica Glass"
  *elastic
  *expansion
  *material, name=CU-TSV
  *elastic
  *expansion
  *material, name="Eagle EXG Glass"
  *elastic
  *expansion
  *material, name=NICKEL-ISOTROPIC
  *elastic
  *expansion
  *material, name="Solder A6-Sn-58wt%Bi(Eutectic)"
  *elastic
  *expansion
  *material, name=TI/TIN
  *elastic
  *expansion, type=ORTHOTROPIC
  *material, name="Tungsten- Isotropic"
  *elastic
  *expansion
  *initialconditions, type=TEMPERATURE
  *solidsection, elset=ASSEMBLY_PART-1-1__PICKEDSET4, material="Corning 7980 Fused Silica Glass"
  *solidsection, elset=ASSEMBLY_PART-1-1__PICKEDSET5, material=CU-TSV
  *solidsection, elset=ASSEMBLY_PART-1-1__PICKEDSET4, material="Corning 7980 Fused Silica Glass"
  *solidsection, elset=ASSEMBLY_PART-1-1__PICKEDSET5, material=CU-TSV
  *initialconditions, type=TEMPERATURE
  *boundary
  *boundary
  *boundary
  *boundary
  *boundary
  *boundary
  *output, field, variable=PRESELECT
  *output, history, variable=PRESELECT
  *initialconditions, type=TEMPERATURE
  *temperature
  *output, field, variable=PRESELECT
  *output, history, variable=PRESELECT
  *initialconditions, type=TEMPERATURE
  *output, field, variable=PRESELECT
  *output, history, variable=PRESELECT
  
                               E L E M E N T   Q U A L I T Y  C H E C K S        
  
  
 ***NOTES: DISTORTED ISOPARAMETRIC ELEMENTS: ANGLE BETWEEN ISOPARAMETRIC LINES 
           IS LESS THAN 45 DEGREES OR GREATER THAN 135 DEGREES.
  
           TETRAHEDRAL QUALITY MEASURE: VOLUME OF TETRAHEDRON DIVIDED BY THE 
           VOLUME OF EQUILATERAL TETRAHEDRON WITH SAME CIRCUMSPHERE RADIUS; 
           0 FOR DEGENERATE TETRAHEDRON AND 1 FOR EQUILATERIAL TETRAHEDRON. IT 
           IS RECOMMENDED THAT THE TETRAHEDRAL QUALITY MEASURE BE GREATER THAN 
           0.02, THE MIN INTERIOR (DIHEDRAL) ANGLE BE GREATER THAN 10 DEGREES, 
           AND THE MAX INTERIOR (DIHEDRAL) ANGLE BE LESS THAN 160 DEGREES. 
  
           MODIFIED TETRAHEDRAL QUALITY MEASURE: ANGLES BETWEEN THE TWO LINE 
           SEGMENTS ON EACH EDGE; THE EDGES OF MODIFIED TETRAHEDRAL SHOULD BE 
           AS STRAIGHT AS POSSIBLE. IT IS RECOMMENDED THAT THE ANGLE BETWEEN 
           THE TWO LINE SEGMENTS ON EACH EDGE IS BETWEEN 160 AND 180 DEGREES. 
  
           TRIANGULAR QUALITY MEASURE: AREA OF TRIANGLE DIVIDED BY THE AREA OF 
           EQUILATERAL TRIANGLE WITH SAME CIRCUMCIRCLE RADIUS; 0 FOR DEGENERATE 
           TRIANGLE AND 1 FOR EQUILATERAL TRIANGLE. IT IS RECOMMENDED THAT THE
           TRIANGULAR QUALITY MEASURE BE GREATER THAN 0.01, THE MIN INTERIOR 
           ANGLE BE GREATER THAN 10 DEGREES, AND THE MAX INTERIOR ANGLE BE LESS 
           THAN 160 DEGREES. 
  
           NODAL ADJUSTMENTS ARISING FROM CONTACT INTERACTIONS AND/OR TIE 
           CONSTRAINTS CAN CAUSE SEVERE ELEMENT DISTORTION. IT MAY BE NECESSARY 
           TO REMESH IN ORDER TO REDUCE THE AMOUNT OF ADJUSTMENT. 

 ***WARNING: 7506 elements are distorted. Either the isoparametric angles are 
             out of the suggested limits or the triangular or tetrahedral 
             quality measure is bad. The elements have been identified in 
             element set WarnElemDistorted.

 ***WARNING: The aspect ratio for 3 elements exceeds 100 to 1. The elements 
             have been identified in element set WarnElemAspectRatio.
  
 --------------------------------------------------------------------------------
 Distorted triangular elements
  
      Element       Quality measure     Min angle        Max angle     Adjusted nodes 
 ------------------ ---------------- ---------------- ---------------- -------------- 
    PART-1-1.415009         0.012508         0.526136          109.583       NO       
    PART-1-1.415010        0.0147362         0.561159          98.3832       NO       
    PART-1-1.415011        0.0102432         0.509664          119.879       NO       
    PART-1-1.415012        0.0125231         0.526883          109.599       NO       
    PART-1-1.415013       0.00820019         0.510767          129.122       NO       
    PART-1-1.415014        0.0102655         0.510767          119.878       NO       
    PART-1-1.415015       0.00716562         0.529056          134.502       NO       
    PART-1-1.415016       0.00822154         0.511837          129.104       NO       
    PART-1-1.415017         0.012531         0.527564          109.651       NO       
    PART-1-1.415018        0.0141333         0.544869          100.456       NO       
    PART-1-1.415019        0.0107827         0.527827          119.052       NO       
    PART-1-1.415020        0.0125544         0.528434          109.633       NO       
    PART-1-1.415021       0.00901175         0.529056          126.967       NO       
    PART-1-1.415022        0.0108116         0.529056          119.033       NO       
    PART-1-1.415023        0.0067257          0.51281          135.425       NO       
    PART-1-1.415024       0.00902845         0.530029          126.966       NO       
    PART-1-1.415025        0.0133044          0.56309          110.045       NO       
    PART-1-1.415026        0.0146565         0.563762          100.098       NO       
    PART-1-1.415027        0.0110491         0.546876          119.599       NO       
    PART-1-1.415028        0.0133335         0.564192          110.027       NO       
    PART-1-1.415029         0.008768         0.530775          128.099       NO       
    PART-1-1.415030        0.0110734         0.548063          119.597       NO       
    PART-1-1.415031       0.00745383         0.531592          133.482       NO       
    PART-1-1.415032        0.0087816         0.531592          128.098       NO       
    PART-1-1.415033        0.0128171         0.546782          110.657       NO       
    PART-1-1.415034        0.0146651         0.564194          100.126       NO       
    PART-1-1.415035        0.0105261         0.530421          120.487       NO       
    PART-1-1.415036        0.0128411         0.547801          110.656       NO       
    PART-1-1.415037       0.00875184         0.531057          128.184       NO       
    PART-1-1.415038        0.0105547         0.531666          120.468       NO       
    PART-1-1.415039       0.00720591         0.532003          134.499       NO       
    PART-1-1.415040       0.00877175         0.532003          128.166       NO       
    PART-1-1.415041        0.0128274         0.547735          110.726       NO       
    PART-1-1.415042        0.0142255         0.548444           100.46       NO       
    PART-1-1.415043        0.0110788         0.548719          119.632       NO       
    PART-1-1.415044        0.0128559         0.548816          110.708       NO       
    PART-1-1.415045       0.00879427         0.532615          128.115       NO       
    PART-1-1.415046        0.0111087             0.55          119.614       NO       
    PART-1-1.415047       0.00675732         0.515514          135.439       NO       
    PART-1-1.415048       0.00880795         0.533438          128.114       NO       
    PART-1-1.415049         0.013391         0.566739          110.041       NO       
    PART-1-1.415050        0.0147197         0.566291          100.124       NO       
    PART-1-1.415051         0.010552         0.531709          120.485       NO       
    PART-1-1.415052        0.0134113         0.567722          110.058       NO       
    PART-1-1.415053        0.0088405         0.515118          126.689       NO       
    PART-1-1.415054        0.0105684         0.532535          120.484       NO       
    PART-1-1.415055       0.00748682         0.534241          133.498       NO       
    PART-1-1.415056       0.00886941         0.516317          126.653       NO       
    PART-1-1.415057         0.012368         0.532327          111.318       NO       
    PART-1-1.415058        0.0147582         0.567861          100.147       NO       
    PART-1-1.415059        0.0105675         0.533086          120.538       NO       
    PART-1-1.415060        0.0123864         0.533251          111.335       NO       
    PART-1-1.415061       0.00878268         0.533434          128.217       NO       
    PART-1-1.415062        0.0105957         0.534112          120.501       NO       
    PART-1-1.415063       0.00724896         0.535153          134.496       NO       
    PART-1-1.415064       0.00882406         0.535153          128.163       NO       
    PART-1-1.415065        0.0136739         0.567996          108.535       NO       
    PART-1-1.415066        0.0147596          0.56816          100.215       NO       
    PART-1-1.415067        0.0119884         0.569526          117.452       NO       
    PART-1-1.415068        0.0137037         0.569109          108.516       NO       
    PART-1-1.415069       0.00988008         0.570657          126.324       NO       
    PART-1-1.415070        0.0120226         0.570773          117.415       NO       
    PART-1-1.415071       0.00728634         0.536735          134.432       NO       
    PART-1-1.415072       0.00991182         0.572214          126.305       NO       
    PART-1-1.415073        0.0139659         0.569311          106.874       NO       
    PART-1-1.415074        0.0150793         0.569509          96.6549       NO       
    PART-1-1.415075        0.0117513          0.55233          116.871       NO       
    PART-1-1.415076        0.0139964         0.570553          106.873       NO       
    PART-1-1.415077       0.00910833         0.535441          127.014       NO       
    PART-1-1.415078        0.0117824          0.55362          116.853       NO       
    PART-1-1.415079       0.00679008         0.519219          135.502       NO       
    PART-1-1.415080       0.00913142         0.536782          127.012       NO       
    PART-1-1.415081         0.013208         0.552406          109.108       NO       
    PART-1-1.415082         0.014969         0.570109          98.4062       NO       
    PART-1-1.415083        0.0109162         0.535262          119.134       NO       
    PART-1-1.415084        0.0132325         0.553553          109.125       NO       
    PART-1-1.415085        0.0091391         0.537066             127.       NO       
    PART-1-1.415086        0.0109515         0.536616          119.097       NO       
    PART-1-1.415087       0.00751887         0.537691          133.561       NO       
    PART-1-1.415088       0.00916588         0.538374          126.981       NO       
    PART-1-1.415089        0.0129631         0.553517          110.722       NO       
    PART-1-1.415090        0.0148591         0.571869           100.18       NO       
    PART-1-1.415091         0.011732          0.57268          118.885       NO       
    PART-1-1.415092         0.012996         0.554788          110.703       NO       
    PART-1-1.415093       0.00887441         0.538222          128.162       NO       
    PART-1-1.415094        0.0117639         0.574032          118.866       NO       
    PART-1-1.415095        0.0073019         0.539441          134.514       NO       
    PART-1-1.415096       0.00890063         0.539542          128.144       NO       
    PART-1-1.415097         0.013502         0.572086          110.127       NO       
    PART-1-1.415098        0.0155211         0.590556          98.2098       NO       
    PART-1-1.415099        0.0112069         0.555629           119.68       NO       
    PART-1-1.415100        0.0135363         0.573403          110.107       NO       
    PART-1-1.415101       0.00885138         0.538382          128.267       NO       
    PART-1-1.415102        0.0112254         0.556749          119.697       NO       
    PART-1-1.415103       0.00683195         0.522151          135.487       NO       
    PART-1-1.415104       0.00888422         0.539836           128.23       NO       
    PART-1-1.415105        0.0138063         0.573729          108.566       NO       
    PART-1-1.415106        0.0150699         0.574033          98.4305       NO       
    PART-1-1.415107         0.011222         0.556575          119.696       NO       
    PART-1-1.415108        0.0138411         0.575046          108.547       NO       
    PART-1-1.415109       0.00995225         0.575864          126.391       NO       
    PART-1-1.415110        0.0112528         0.557899          119.678       NO       
    PART-1-1.415111       0.00757109         0.541163          133.544       NO       
    PART-1-1.415112        0.0099782         0.577086          126.372       NO       
    PART-1-1.415113        0.0135523         0.574352          110.143       NO       
    PART-1-1.415114        0.0150822         0.574705          98.4964       NO       
    PART-1-1.415115        0.0112303         0.557697          119.759       NO       
    PART-1-1.415116        0.0135822         0.575613          110.142       NO       
    PART-1-1.415117       0.00888501         0.540419          128.265       NO       
    PART-1-1.415118        0.0112577         0.558854          119.741       NO       
    PART-1-1.415119       0.00730489         0.541239          134.597       NO       
    PART-1-1.415120       0.00890188         0.541441          128.264       NO       
    PART-1-1.415121        0.0130769         0.539951          108.038       NO       
    PART-1-1.415122        0.0151177         0.576139          98.5221       NO       
    PART-1-1.415123         0.011321         0.540077          117.694       NO       
    PART-1-1.415124        0.0131016          0.54097          108.037       NO       
    PART-1-1.415125       0.00892184         0.541892          128.213       NO       
    PART-1-1.415126         0.011361         0.541618          117.656       NO       
    PART-1-1.415127       0.00684904         0.524447          135.538       NO       
    PART-1-1.415128        0.0089388         0.542917          128.212       NO       
    PART-1-1.415129        0.0138756         0.576853            108.6       NO       
    PART-1-1.415130        0.0156364         0.594934          98.2047       NO       
    PART-1-1.415131        0.0118981         0.559453           116.89       NO       
    PART-1-1.415132        0.0139063         0.578003          108.581       NO       
    PART-1-1.415133       0.00950305         0.542411          125.878       NO       
    PART-1-1.415134        0.0119342         0.560963           116.87       NO       
    PART-1-1.415135       0.00734182         0.543714          134.582       NO       
    PART-1-1.415136       0.00952115          0.54344          125.877       NO       
    PART-1-1.415137        0.0130908         0.559634          110.807       NO       
    PART-1-1.415138        0.0150031         0.577782          100.276       NO       
    PART-1-1.415139        0.0107381         0.542678           120.62       NO       
    PART-1-1.415140        0.0131203         0.560761          110.789       NO       
    PART-1-1.415141       0.00925038         0.544034          127.026       NO       
    PART-1-1.415142        0.0107777         0.544259          120.582       NO       
    PART-1-1.415143       0.00759447         0.544366          133.627       NO       
    PART-1-1.415144        0.0092746         0.545197          127.008       NO       
    PART-1-1.415145        0.0139022         0.578327          108.652       NO       
    PART-1-1.415146         0.015818         0.597216          96.5637       NO       
    PART-1-1.415147        0.0118452         0.579289          118.977       NO       
    PART-1-1.415148        0.0139418         0.579726          108.616       NO       
    PART-1-1.415149       0.00948595         0.562906          127.351       NO       
    PART-1-1.415150        0.0118881         0.580965          118.939       NO       
    PART-1-1.415151       0.00738263         0.546131          134.549       NO       
    PART-1-1.415152       0.00950715          0.56416          127.351       NO       
    PART-1-1.415153        0.0142072         0.580035           107.01       NO       
    PART-1-1.415154        0.0152259         0.580433          98.5734       NO       
    PART-1-1.415155        0.0118895         0.581166          118.951       NO       
    PART-1-1.415156        0.0142556         0.581669          106.955       NO       
    PART-1-1.415157       0.00950694         0.563844          127.331       NO       
    PART-1-1.415158        0.0119225         0.582564          118.931       NO       
    PART-1-1.415159        0.0068848         0.528444          135.602       NO       
    PART-1-1.415160       0.00952112         0.564962          127.348       NO       
    PART-1-1.415161         0.013683         0.580562          110.229       NO       
    PART-1-1.415162        0.0151024         0.581638          100.282       NO       
    PART-1-1.415163        0.0122281         0.582522          117.595       NO       
    PART-1-1.415164        0.0137324         0.582244          110.173       NO       
    PART-1-1.415165       0.00950841         0.564783          127.386       NO       
    PART-1-1.415166        0.0122516         0.583639          117.594       NO       
    PART-1-1.415167        0.0076172         0.546988          133.679       NO       
    PART-1-1.415168       0.00951949         0.565722          127.404       NO       
    PART-1-1.415169        0.0137264         0.582262          110.209       NO       
    PART-1-1.415170        0.0152723          0.58223          98.5816       NO       
    PART-1-1.415171        0.0116858         0.564907          118.385       NO       
    PART-1-1.415172         0.013767         0.583701          110.171       NO       
    PART-1-1.415173       0.00927349         0.547198          127.149       NO       
    PART-1-1.415174        0.0117055         0.566067          118.403       NO       
    PART-1-1.415175       0.00739471         0.548397           134.62       NO       
    PART-1-1.415176        0.0092914         0.548244          127.147       NO       
    PART-1-1.415177         0.014008         0.582856          108.668       NO       
    PART-1-1.415178        0.0159419         0.601941          96.5795       NO       
    PART-1-1.415179        0.0116983          0.56571          118.403       NO       
    PART-1-1.415180        0.0140396          0.58404          108.649       NO       
    PART-1-1.415181       0.00960671         0.548603          125.894       NO       
    PART-1-1.415182        0.0117181          0.56687          118.421       NO       
    PART-1-1.415183       0.00690422         0.530964          135.655       NO       
    PART-1-1.415184       0.00963152          0.55001          125.893       NO       
    PART-1-1.415185        0.0140522         0.584693          108.667       NO       
    PART-1-1.415186        0.0153547         0.585219           98.532       NO       
    PART-1-1.415187        0.0108391         0.548181          120.652       NO       
    PART-1-1.415188        0.0140791         0.585813          108.667       NO       
    PART-1-1.415189       0.00900331         0.548948          128.348       NO       
    PART-1-1.415190        0.0108631         0.549401          120.652       NO       
    PART-1-1.415191       0.00765197         0.550153          133.714       NO       
    PART-1-1.415192       0.00903353         0.550503          128.328       NO       
    PART-1-1.415193        0.0138047         0.567106          107.577       NO       
    PART-1-1.415194        0.0154935         0.585619           96.832       NO       
    PART-1-1.415195        0.0120493         0.567663          116.994       NO       
    PART-1-1.415196        0.0138311         0.568188          107.576       NO       
    PART-1-1.415197       0.00986435         0.568593          126.247       NO       
    PART-1-1.415198        0.0120883         0.569125          116.956       NO       
    PART-1-1.415199       0.00743534         0.551747          134.636       NO       
    PART-1-1.415200       0.00989316         0.570243          126.246       NO       
    PART-1-1.415201        0.0141017          0.58688          108.684       NO       
    PART-1-1.415202        0.0154067         0.587441          98.6061       NO       
    PART-1-1.415203        0.0117508         0.568849          118.456       NO       
    PART-1-1.415204        0.0141285            0.588          108.684       NO       
    PART-1-1.415205       0.00904905         0.551847          128.354       NO       
    PART-1-1.415206        0.0117874         0.570417          118.437       NO       
    PART-1-1.415207       0.00742062         0.552209          134.717       NO       
    PART-1-1.415208       0.00907235         0.553267          128.353       NO       
    PART-1-1.415209        0.0130435         0.550625          109.851       NO       
    PART-1-1.415210        0.0150621         0.569947          97.0911       NO       
    PART-1-1.415211        0.0109043         0.551801          120.678       NO       
    PART-1-1.415212        0.0130727          0.55186          109.851       NO       
    PART-1-1.415213       0.00907221         0.552949          128.333       NO       
    PART-1-1.415214        0.0109453         0.553443           120.64       NO       
    PART-1-1.415215       0.00695595         0.535051          135.659       NO       
    PART-1-1.415216       0.00909239         0.554188          128.333       NO       
    PART-1-1.415217        0.0138836         0.589348           110.26       NO       
    PART-1-1.415218        0.0158131         0.608048          100.023       NO       
    PART-1-1.415219        0.0120199         0.589389          119.107       NO       
    PART-1-1.415220        0.0139155         0.590562          110.241       NO       
    PART-1-1.415221       0.00936361         0.553316            127.2       NO       
    PART-1-1.415222        0.0120432         0.590528          119.106       NO       
    PART-1-1.415223       0.00771335         0.554669          133.717       NO       
    PART-1-1.415224       0.00938472         0.554563          127.199       NO       
    PART-1-1.415225        0.0144199         0.589646          107.149       NO       
    PART-1-1.415226        0.0156309         0.590893          96.8594       NO       
    PART-1-1.415227        0.0127081         0.590943          116.246       NO       
    PART-1-1.415228        0.0144566         0.590905          107.112       NO       
    PART-1-1.415229        0.0101832         0.591708          126.544       NO       
    PART-1-1.415230         0.012741         0.592466          116.244       NO       
    PART-1-1.415231       0.00745649         0.555239          134.734       NO       
    PART-1-1.415232        0.0102094          0.59324          126.544       NO       
    PART-1-1.415233        0.0142146         0.591476          108.667       NO       
    PART-1-1.415234        0.0156497         0.591619           96.866       NO       
    PART-1-1.415235        0.0109529         0.554582          120.704       NO       
    PART-1-1.415236        0.0142467          0.59281          108.667       NO       
    PART-1-1.415237       0.00855417         0.537162          129.391       NO       
    PART-1-1.415238        0.0109751         0.555917          120.722       NO       
    PART-1-1.415239       0.00697545         0.537632          135.713       NO       
    PART-1-1.415240       0.00857055         0.538201          129.391       NO       
    PART-1-1.415241        0.0136871         0.573968          109.313       NO       
    PART-1-1.415242         0.015559         0.593429           98.659       NO       
    PART-1-1.415243           0.0113         0.556159          119.313       NO       
    PART-1-1.415244        0.0137088         0.575015          109.331       NO       
    PART-1-1.415245       0.00910674         0.556389          128.417       NO       
    PART-1-1.415246        0.0113356         0.557705          119.293       NO       
    PART-1-1.415247       0.00774383         0.557557          133.753       NO       
    PART-1-1.415248       0.00912844         0.557431          128.399       NO       
    PART-1-1.415249        0.0139838         0.574941          107.647       NO       
    PART-1-1.415250        0.0157066          0.59387          96.9021       NO       
    PART-1-1.415251        0.0121967         0.575375          117.064       NO       
    PART-1-1.415252        0.0140109         0.576059          107.647       NO       
    PART-1-1.415253        0.0102875         0.576454          125.127       NO       
    PART-1-1.415254        0.0122408          0.57707          117.026       NO       
    PART-1-1.415255       0.00748312         0.557945           134.77       NO       
    PART-1-1.415256        0.0103076         0.577578          125.127       NO       
    PART-1-1.415257        0.0145364         0.594304          107.131       NO       
    PART-1-1.415258        0.0157538         0.595635          96.8945       NO       
    PART-1-1.415259        0.0124672         0.595527          117.735       NO       
    PART-1-1.415260         0.014574         0.595721          107.111       NO       
    PART-1-1.415261       0.00945797         0.559274          127.222       NO       
    PART-1-1.415262        0.0124997         0.597083          117.735       NO       
    PART-1-1.415263       0.00701151         0.540773           135.73       NO       
    PART-1-1.415264       0.00947213         0.560397          127.241       NO       
    PART-1-1.415265        0.0145737         0.596074          107.167       NO       
    PART-1-1.415266         0.015768         0.596193          96.9013       NO       
    PART-1-1.415267        0.0115914         0.577963          119.948       NO       
    PART-1-1.415268        0.0146166         0.597826          107.166       NO       
    PART-1-1.415269       0.00970724         0.578589          127.507       NO       
    PART-1-1.415270        0.0116175         0.579275          119.949       NO       
    PART-1-1.415271       0.00752125         0.560915          134.775       NO       
    PART-1-1.415272       0.00972932         0.579907          127.507       NO       
    PART-1-1.415273        0.0140627          0.59739          110.312       NO       
    PART-1-1.415274        0.0156834         0.598238          98.6754       NO       
    PART-1-1.415275        0.0119558         0.579287          118.497       NO       
    PART-1-1.415276         0.014094         0.598868           110.33       NO       
    PART-1-1.415277       0.00916626         0.560627          128.454       NO       
    PART-1-1.415278         0.011979         0.580419          118.497       NO       
    PART-1-1.415279       0.00777072         0.561153          133.838       NO       
    PART-1-1.415280       0.00918429         0.561732          128.453       NO       
    PART-1-1.415281        0.0135408          0.56054          108.248       NO       
    PART-1-1.415282        0.0163483         0.617678          96.7206       NO       
    PART-1-1.415283        0.0113803         0.561044          119.394       NO       
    PART-1-1.415284        0.0135716         0.561943          108.266       NO       
    PART-1-1.415285       0.00949499         0.562319          127.277       NO       
    PART-1-1.415286        0.0114129         0.562438          119.374       NO       
    PART-1-1.415287       0.00754107          0.56276          134.792       NO       
    PART-1-1.415288       0.00952102         0.563574          127.258       NO       
    PART-1-1.415289        0.0146592         0.599591          107.168       NO       
    PART-1-1.415290        0.0158768         0.600435          96.9486       NO       
    PART-1-1.415291        0.0123157         0.581395          117.099       NO       
    PART-1-1.415292        0.0147021         0.601223          107.149       NO       
    PART-1-1.415293       0.00979929         0.562749          126.106       NO       
    PART-1-1.415294          0.01234         0.582545          117.099       NO       
    PART-1-1.415295        0.0070546         0.544844          135.766       NO       
    PART-1-1.415296       0.00982496         0.564227          126.106       NO       
    PART-1-1.415297        0.0138553         0.581711          109.404       NO       
    PART-1-1.415298        0.0152474         0.582564          98.9776       NO       
    PART-1-1.415299        0.0117626         0.563899          117.944       NO       
    PART-1-1.415300        0.0138872          0.58305          109.403       NO       
    PART-1-1.415301       0.00952527         0.564398          127.295       NO       
    PART-1-1.415302         0.011796         0.565301          117.925       NO       
    PART-1-1.415303       0.00783125         0.565284          133.824       NO       
    PART-1-1.415304       0.00955753         0.566023          127.276       NO       
    PART-1-1.415305         0.013892         0.582861          109.349       NO       
    PART-1-1.415306        0.0160386         0.602506          95.2342       NO       
    PART-1-1.415307        0.0116929         0.583398          119.977       NO       
    PART-1-1.415308        0.0139284         0.584394          109.349       NO       
    PART-1-1.415309       0.00979421         0.584381          127.543       NO       
    PART-1-1.415310        0.0117372          0.58516          119.939       NO       
    PART-1-1.415311       0.00756891         0.565842          134.841       NO       
    PART-1-1.415312        0.0098168         0.585732          127.542       NO       
    PART-1-1.415313        0.0147244         0.602855          107.256       NO       
    PART-1-1.415314        0.0159794          0.60437          96.9667       NO       
    PART-1-1.415315        0.0120432         0.584695          118.599       NO       
    PART-1-1.415316        0.0147584         0.604249          107.256       NO       
    PART-1-1.415317       0.00924811         0.566245          128.489       NO       
    PART-1-1.415318        0.0120813         0.586338           118.58       NO       
    PART-1-1.415319        0.0070864         0.548063          135.803       NO       
    PART-1-1.415320        0.0092622         0.567408          128.508       NO       
    PART-1-1.415321        0.0134053         0.566859          109.975       NO       
    PART-1-1.415322        0.0158478         0.604926          98.7957       NO       
    PART-1-1.415323        0.0114809         0.566652          119.449       NO       
    PART-1-1.415324        0.0134363         0.568173          109.975       NO       
    PART-1-1.415325       0.00958042         0.567971          127.314       NO       
    PART-1-1.415326        0.0115203         0.568175           119.41       NO       
    PART-1-1.415327        0.0078626         0.568287          133.861       NO       
    PART-1-1.415328       0.00959971         0.569109          127.313       NO       
    PART-1-1.415329        0.0145043         0.605152          108.883       NO       
    PART-1-1.415330        0.0161616         0.607078          95.2075       NO       
    PART-1-1.415331        0.0123483         0.606473          119.181       NO       
    PART-1-1.415332        0.0145528         0.606902          108.845       NO       
    PART-1-1.415333       0.00928873         0.569155          128.514       NO       
    PART-1-1.415334         0.012377          0.60788           119.18       NO       
    PART-1-1.415335       0.00759873         0.568841          134.878       NO       
    PART-1-1.415336       0.00930699         0.570288          128.515       NO       
    PART-1-1.415337        0.0148391         0.607343          107.223       NO       
    PART-1-1.415338        0.0160641         0.607702          97.0109       NO       
    PART-1-1.415339         0.012702          0.60783          117.825       NO       
    PART-1-1.415340        0.0148831         0.608888          107.184       NO       
    PART-1-1.415341        0.0104065          0.60756          126.717       NO       
    PART-1-1.415342        0.0127311         0.609235          117.825       NO       
    PART-1-1.415343       0.00763872         0.570592          134.816       NO       
    PART-1-1.415344        0.0104272          0.60877          126.717       NO       
    PART-1-1.415345        0.0148687         0.608554          107.222       NO       
    PART-1-1.415346        0.0161132         0.609537          97.0029       NO       
    PART-1-1.415347        0.0115569         0.570419          119.448       NO       
    PART-1-1.415348        0.0149082         0.610177          107.223       NO       
    PART-1-1.415349        0.0087488         0.551845          129.538       NO       
    PART-1-1.415350         0.011577         0.571632          119.467       NO       
    PART-1-1.415351       0.00711247         0.551863           135.89       NO       
    PART-1-1.415352       0.00876355          0.55277          129.537       NO       
    PART-1-1.415353         0.014328         0.590367          107.829       NO       
    PART-1-1.415354        0.0162591         0.610902          95.2837       NO       
    PART-1-1.415355        0.0119276         0.572129           117.97       NO       
    PART-1-1.415356        0.0143613         0.591874          107.848       NO       
    PART-1-1.415357       0.00996087          0.57242          126.128       NO       
    PART-1-1.415358        0.0119578         0.573372           117.95       NO       
    PART-1-1.415359       0.00789255         0.571825           133.93       NO       
    PART-1-1.415360        0.0099847         0.573517          126.109       NO       
    PART-1-1.415361        0.0143656         0.591679          107.793       NO       
    PART-1-1.415362        0.0162818         0.611683          95.2502       NO       
    PART-1-1.415363        0.0125144         0.592027          117.211       NO       
    PART-1-1.415364         0.014399         0.593058          107.793       NO       
    PART-1-1.415365        0.0102186         0.592505          126.463       NO       
    PART-1-1.415366        0.0125568         0.593622          117.172       NO       
    PART-1-1.415367       0.00767147         0.573827          134.853       NO       
    PART-1-1.415368         0.010239         0.593693          126.463       NO       
    PART-1-1.415369        0.0149403         0.611863          107.277       NO       
    PART-1-1.415370        0.0160665         0.613382          98.8236       NO       
    PART-1-1.415371        0.0131094         0.612113          116.469       NO       
    PART-1-1.415372        0.0149747         0.613149          107.258       NO       
    PART-1-1.415373       0.00966403         0.574311            127.4       NO       
    PART-1-1.415374        0.0131445         0.613759          116.469       NO       
    PART-1-1.415375       0.00715205         0.555353          135.909       NO       
    PART-1-1.415376       0.00967592         0.575317          127.419       NO       
    PART-1-1.415377        0.0147011         0.613536          108.902       NO       
    PART-1-1.415378        0.0168773         0.633855          95.1432       NO       
    PART-1-1.415379        0.0125535         0.594404          117.258       NO       
    PART-1-1.415380        0.0147305         0.614769          108.902       NO       
    PART-1-1.415381        0.0105775         0.594963          125.271       NO       
    PART-1-1.415382        0.0125871         0.595999          117.258       NO       
    PART-1-1.415383       0.00793219         0.575474          133.968       NO       
    PART-1-1.415384        0.0105986         0.596161          125.271       NO       
    PART-1-1.415385        0.0150002         0.614458          107.297       NO       
    PART-1-1.415386        0.0163894         0.615771          95.2693       NO       
    PART-1-1.415387        0.0119079         0.595334          120.071       NO       
    PART-1-1.415388        0.0150303         0.615696          107.296       NO       
    PART-1-1.415389       0.00939335         0.577166          128.609       NO       
    PART-1-1.415390        0.0119441         0.597142           120.07       NO       
    PART-1-1.415391       0.00770186         0.577291           134.91       NO       
    PART-1-1.415392       0.00941217          0.57833          128.609       NO       
    PART-1-1.415393        0.0142129          0.57792          106.634       NO       
    PART-1-1.415394        0.0164328         0.617598          95.3598       NO       
    PART-1-1.415395        0.0116892         0.577776          119.516       NO       
    PART-1-1.415396        0.0142464         0.579285          106.634       NO       
    PART-1-1.415397       0.00970279         0.577532          127.457       NO       
    PART-1-1.415398        0.0117234         0.579251          119.497       NO       
    PART-1-1.415399       0.00718459         0.558693          135.947       NO       
    PART-1-1.415400       0.00972545          0.57889          127.457       NO       
    PART-1-1.415401        0.0150469          0.61701          107.388       NO       
    PART-1-1.415402        0.0163349         0.618226           97.106       NO       
    PART-1-1.415403        0.0126398         0.598405          117.248       NO       
    PART-1-1.415404        0.0150874         0.618539          107.369       NO       
    PART-1-1.415405        0.0097511          0.57933          127.387       NO       
    PART-1-1.415406        0.0126651          0.59961          117.248       NO       
    PART-1-1.415407       0.00771039         0.578982          134.961       NO       
    PART-1-1.415408       0.00977725         0.580894          127.387       NO       
    PART-1-1.415409        0.0145348         0.599198           107.87       NO       
    PART-1-1.415410        0.0158472         0.600412          97.3485       NO       
    PART-1-1.415411        0.0117181         0.579756          119.562       NO       
    PART-1-1.415412        0.0145739         0.600818           107.87       NO       
    PART-1-1.415413       0.00941914         0.579913          128.679       NO       
    PART-1-1.415414        0.0117525         0.581243          119.543       NO       
    PART-1-1.415415       0.00800533         0.580975          133.975       NO       
    PART-1-1.415416       0.00944601         0.581252          128.659       NO       
    PART-1-1.415417        0.0145641         0.600412           107.87       NO       
    PART-1-1.415418        0.0165403         0.621559          95.3213       NO       
    PART-1-1.415419        0.0126815         0.600818          117.287       NO       
    PART-1-1.415420        0.0146035          0.60204           107.87       NO       
    PART-1-1.415421        0.0106758         0.601113          125.309       NO       
    PART-1-1.415422        0.0127207         0.602255          117.248       NO       
    PART-1-1.415423       0.00773288         0.581332          134.992       NO       
    PART-1-1.415424         0.010701         0.602543          125.309       NO       
    PART-1-1.415425        0.0154274         0.621559          105.721       NO       
    PART-1-1.415426        0.0166641          0.62304          93.5727       NO       
    PART-1-1.415427        0.0127071          0.60204          117.287       NO       
    PART-1-1.415428         0.015469         0.623241          105.721       NO       
    PART-1-1.415429       0.00979869         0.583106          127.446       NO       
    PART-1-1.415430        0.0127442         0.603584          117.267       NO       
    PART-1-1.415431       0.00724267         0.563415          135.955       NO       
    PART-1-1.415432        0.0098172         0.584533          127.466       NO       
    PART-1-1.415433        0.0143535         0.584019          106.692       NO       
    PART-1-1.415434        0.0165892         0.623621          95.4239       NO       
    PART-1-1.415435        0.0121384         0.584114          118.134       NO       
    PART-1-1.415436        0.0143924         0.585609          106.692       NO       
    PART-1-1.415437       0.00979531           0.5837          127.496       NO       
    PART-1-1.415438        0.0121808         0.585727          118.095       NO       
    PART-1-1.415439       0.00804317         0.584533          134.014       NO       
    PART-1-1.415440       0.00981841         0.585087          127.496       NO       
    PART-1-1.415441        0.0152045         0.623528          107.393       NO       
    PART-1-1.415442         0.016646         0.625746          95.4186       NO       
    PART-1-1.415443        0.0133611         0.624736          116.542       NO       
    PART-1-1.415444         0.015256         0.625374          107.354       NO       
    PART-1-1.415445        0.0101654         0.585727          126.224       NO       
    PART-1-1.415446        0.0133882         0.626008          116.542       NO       
    PART-1-1.415447       0.00777157         0.585087          135.031       NO       
    PART-1-1.415448         0.010193         0.587333          126.224       NO       
    PART-1-1.415449        0.0152498         0.625652           107.43       NO       
    PART-1-1.415450         0.016672         0.626612          95.3659       NO       
    PART-1-1.415451        0.0124391         0.606039           118.77       NO       
    PART-1-1.415452        0.0152967         0.627441           107.41       NO       
    PART-1-1.415453         0.010085          0.60598           127.79       NO       
    PART-1-1.415454        0.0124684         0.607482           118.77       NO       
    PART-1-1.415455       0.00727779         0.567249          136.006       NO       
    PART-1-1.415456        0.0101125         0.607644           127.79       NO       
    PART-1-1.415457         0.014718         0.607189          107.928       NO       
    PART-1-1.415458        0.0166006           0.6285          97.1764       NO       
    PART-1-1.415459          0.01281          0.60738          117.327       NO       
    PART-1-1.415460         0.014758          0.60871          107.909       NO       
    PART-1-1.415461       0.00986471         0.588018          127.505       NO       
    PART-1-1.415462        0.0128406          0.60884          117.327       NO       
    PART-1-1.415463       0.00808139          0.58814          134.053       NO       
    PART-1-1.415464        0.0098882         0.589431          127.505       NO       
    PART-1-1.415465        0.0150231         0.608392          106.232       NO       
    PART-1-1.415466        0.0168304         0.629385          93.6551       NO       
    PART-1-1.415467         0.012231         0.588566          118.132       NO       
    PART-1-1.415468        0.0150687         0.610125          106.213       NO       
    PART-1-1.415469       0.00986135         0.588626          127.556       NO       
    PART-1-1.415470        0.0122645         0.590189          118.132       NO       
    PART-1-1.415471       0.00783373         0.589335          135.008       NO       
    PART-1-1.415472       0.00989286         0.590199          127.536       NO       
    PART-1-1.415473        0.0156015         0.629195          105.815       NO       
    PART-1-1.415474        0.0166666         0.631062          97.1967       NO       
    PART-1-1.415475        0.0128485          0.60998          117.395       NO       
    PART-1-1.415476        0.0156491         0.630997          105.796       NO       
    PART-1-1.415477         0.010815         0.610225          125.388       NO       
    PART-1-1.415478        0.0128863          0.61156          117.375       NO       
    PART-1-1.415479       0.00782647         0.590103          135.071       NO       
    PART-1-1.415480        0.0108445         0.611906          125.388       NO       
    PART-1-1.415481        0.0153796         0.630899          107.416       NO       
    PART-1-1.415482        0.0168259         0.632608          95.4585       NO       
    PART-1-1.415483        0.0134909         0.631503          116.601       NO       
    PART-1-1.415484        0.0154324         0.632933          107.397       NO       
    PART-1-1.415485       0.00959893         0.591886          128.727       NO       
    PART-1-1.415486        0.0135279         0.633246          116.601       NO       
    PART-1-1.415487       0.00732927         0.571905          136.035       NO       
    PART-1-1.415488       0.00961688         0.593348          128.747       NO       
    PART-1-1.415489        0.0153977         0.631767          107.434       NO       
    PART-1-1.415490        0.0168525         0.633493          95.4067       NO       
    PART-1-1.415491        0.0129101         0.612608          117.367       NO       
    PART-1-1.415492        0.0154404         0.633523          107.434       NO       
    PART-1-1.415493        0.0108505         0.612864          125.428       NO       
    PART-1-1.415494        0.0129456         0.614302          117.367       NO       
    PART-1-1.415495       0.00813911          0.59321          134.094       NO       
    PART-1-1.415496        0.0108764         0.614344          125.428       NO       
    PART-1-1.415497        0.0148601         0.613754          108.024       NO       
    PART-1-1.415498        0.0174339         0.655178          95.3198       NO       
    PART-1-1.415499        0.0125765         0.613731           118.85       NO       
    PART-1-1.415500        0.0149013         0.615456          108.024       NO       
    PART-1-1.415501       0.00962007         0.593765           128.76       NO       
    PART-1-1.415502         0.012615         0.615637          118.851       NO       
    PART-1-1.415503       0.00785749         0.593755          135.132       NO       
    PART-1-1.415504       0.00964317         0.595207           128.76       NO       
    PART-1-1.415505        0.0151985         0.615803          106.276       NO       
    PART-1-1.415506        0.0164919         0.616982          93.8285       NO       
    PART-1-1.415507        0.0123489         0.594957          118.192       NO       
    PART-1-1.415508        0.0152452         0.617578          106.257       NO       
    PART-1-1.415509        0.0102953         0.595768          126.385       NO       
    PART-1-1.415510        0.0123831         0.596615          118.193       NO       
    PART-1-1.415511       0.00736069         0.575247          136.075       NO       
    PART-1-1.415512        0.0103235         0.597422          126.385       NO       
    PART-1-1.415513        0.0152077         0.616642          106.348       NO       
    PART-1-1.415514        0.0171449         0.639032          91.8982       NO       
    PART-1-1.415515        0.0129731         0.616627          117.456       NO       
    PART-1-1.415516        0.0152546         0.618428           106.33       NO       
    PART-1-1.415517       0.00997273          0.59632          127.616       NO       
    PART-1-1.415518        0.0130092         0.618347          117.455       NO       
    PART-1-1.415519       0.00818086         0.597127          134.135       NO       
    PART-1-1.415520             0.01         0.597973          127.617       NO       
    PART-1-1.415521        0.0155369         0.637936          107.495       NO       
    PART-1-1.415522        0.0168807         0.639557          97.3233       NO       
    PART-1-1.415523        0.0124211         0.598398          118.187       NO       
    PART-1-1.415524        0.0155693         0.639271          107.495       NO       
    PART-1-1.415525       0.00968882         0.598212           128.77       NO       
    PART-1-1.415526        0.0124599         0.600277          118.187       NO       
    PART-1-1.415527       0.00790304         0.597674          135.152       NO       
    PART-1-1.415528        0.0097204         0.599844           128.75       NO       
    PART-1-1.415529        0.0152766         0.619584          106.369       NO       
    PART-1-1.415530        0.0171605         0.641866          93.7331       NO       
    PART-1-1.415531         0.012413         0.598762          118.254       NO       
    PART-1-1.415532         0.015309         0.621035           106.39       NO       
    PART-1-1.415533        0.0100159         0.599268          127.637       NO       
    PART-1-1.415534        0.0124703         0.601088          118.214       NO       
    PART-1-1.415535       0.00740285         0.579037          136.097       NO       
    PART-1-1.415536        0.0100366         0.600524          127.638       NO       
    PART-1-1.415537        0.0147502         0.601261          106.854       NO       
    PART-1-1.415538        0.0166496         0.622984          93.8905       NO       
    PART-1-1.415539        0.0136694         0.641076          116.703       NO       
    PART-1-1.415540         0.014796         0.602873          106.815       NO       
    PART-1-1.415541        0.0109879         0.621339          125.469       NO       
    PART-1-1.415542        0.0137271         0.643335          116.663       NO       
    PART-1-1.415543       0.00794744         0.600836          135.142       NO       
    PART-1-1.415544        0.0110063          0.62271           125.49       NO       
    PART-1-1.415545        0.0159091         0.642313          105.918       NO       
    PART-1-1.415546        0.0176806          0.66452          95.3454       NO       
    PART-1-1.415547        0.0124887         0.602472          118.257       NO       
    PART-1-1.415548        0.0159533         0.643972          105.897       NO       
    PART-1-1.415549         0.010072         0.602494          127.628       NO       
    PART-1-1.415550        0.0125277         0.604373          118.257       NO       
    PART-1-1.415551        0.0082223         0.601704          134.208       NO       
    PART-1-1.415552        0.0100965         0.603978          127.628       NO       
    PART-1-1.415553        0.0156809         0.644196          107.539       NO       
    PART-1-1.415554        0.0172847         0.646582          93.7747       NO       
    PART-1-1.415555        0.0137164         0.643573          116.727       NO       
    PART-1-1.415556        0.0157302         0.645937          107.499       NO       
    PART-1-1.415557        0.0100768         0.603305          127.659       NO       
    PART-1-1.415558        0.0137592         0.645605          116.728       NO       
    PART-1-1.415559       0.00798606         0.603574          135.132       NO       
    PART-1-1.415560        0.0101016           0.6048          127.659       NO       
    PART-1-1.415561        0.0162476         0.645489          104.239       NO       
    PART-1-1.415562        0.0173034         0.647287          93.7795       NO       
    PART-1-1.415563         0.013144         0.624961           117.47       NO       
    PART-1-1.415564        0.0162923          0.64715          104.219       NO       
    PART-1-1.415565        0.0110275         0.625225          125.572       NO       
    PART-1-1.415566        0.0131854         0.626949          117.471       NO       
    PART-1-1.415567       0.00744954         0.584305           136.17       NO       
    PART-1-1.415568        0.0110585         0.626995          125.572       NO       
    PART-1-1.415569        0.0154441         0.626817          106.433       NO       
    PART-1-1.415570        0.0168073         0.628929          93.9131       NO       
    PART-1-1.415571        0.0125586         0.606582          118.319       NO       
    PART-1-1.415572        0.0154879           0.6286          106.433       NO       
    PART-1-1.415573        0.0101362         0.606413           127.63       NO       
    PART-1-1.415574        0.0126008         0.608408          118.299       NO       
    PART-1-1.415575       0.00826474         0.605729           134.25       NO       
    PART-1-1.415576        0.0101645         0.608127          127.631       NO       
    PART-1-1.415577        0.0146179         0.608271           108.66       NO       
    PART-1-1.415578         0.016746          0.63038          95.7989       NO       
    PART-1-1.415579        0.0119688          0.58723          119.138       NO       
    PART-1-1.415580        0.0146487         0.609708          108.681       NO       
    PART-1-1.415581       0.00954326         0.587099          128.648       NO       
    PART-1-1.415582        0.0120165         0.589123          119.098       NO       
    PART-1-1.415583       0.00802686         0.607612          135.174       NO       
    PART-1-1.415584       0.00957844         0.588943          128.627       NO       
    PART-1-1.415585        0.0149392         0.609793          106.976       NO       
    PART-1-1.415586        0.0174464         0.652737          93.8375       NO       
    PART-1-1.415587        0.0129445         0.608563          116.856       NO       
    PART-1-1.415588        0.0149708         0.611097          106.977       NO       
    PART-1-1.415589        0.0105071         0.609482           126.47       NO       
    PART-1-1.415590         0.013007         0.610848          116.795       NO       
    PART-1-1.415591       0.00749535         0.588426          136.192       NO       
    PART-1-1.415592        0.0105403         0.611434           126.47       NO       
    PART-1-1.415593        0.0163891           0.6515          104.302       NO       
    PART-1-1.415594        0.0174655         0.653463          93.8424       NO       
    PART-1-1.415595        0.0138727         0.651422          116.767       NO       
    PART-1-1.415596        0.0164391         0.653255          104.262       NO       
    PART-1-1.415597        0.0107944         0.631164          126.763       NO       
    PART-1-1.415598        0.0139373         0.653989          116.726       NO       
    PART-1-1.415599       0.00832501         0.610241          134.252       NO       
    PART-1-1.415600        0.0108155          0.63278          126.785       NO       
    PART-1-1.415601         0.016173         0.653467          105.987       NO       
    PART-1-1.415602        0.0169665         0.634962          93.9555       NO       
    PART-1-1.415603        0.0138918         0.652607          116.791       NO       
    PART-1-1.415604        0.0162291         0.655473          105.947       NO       
    PART-1-1.415605        0.0101965         0.611606          127.723       NO       
    PART-1-1.415606        0.0139361         0.654707          116.792       NO       
    PART-1-1.415607       0.00807664         0.611918          135.197       NO       
    PART-1-1.415608        0.0102251         0.613345          127.724       NO       
    PART-1-1.415609        0.0153332         0.634198          108.137       NO       
    PART-1-1.415610        0.0174744         0.657327          95.5882       NO       
    PART-1-1.415611        0.0120749         0.592752          119.162       NO       
    PART-1-1.415612        0.0153654           0.6357          108.159       NO       
    PART-1-1.415613       0.00995288         0.592561          127.458       NO       
    PART-1-1.415614        0.0121095         0.594458          119.162       NO       
    PART-1-1.415615       0.00806956         0.612766           135.26       NO       
    PART-1-1.415616        0.0100094         0.594965          127.398       NO       
    PART-1-1.415617        0.0150532         0.614877          107.037       NO       
    PART-1-1.415618        0.0170489         0.638121          93.9987       NO       
    PART-1-1.415619        0.0127059          0.61476          118.405       NO       
    PART-1-1.415620        0.0150907         0.616417          107.038       NO       
    PART-1-1.415621       0.00991698         0.614685          128.898       NO       
    PART-1-1.415622        0.0127664         0.617217          118.364       NO       
    PART-1-1.415623       0.00757159         0.594302          136.184       NO       
    PART-1-1.415624       0.00996574         0.617025          128.858       NO       
    PART-1-1.415625        0.0165616         0.658433          104.311       NO       
    PART-1-1.415626        0.0177238         0.660816          92.1064       NO       
    PART-1-1.415627        0.0139748         0.657038          116.835       NO       
    PART-1-1.415628        0.0166134         0.660384          104.292       NO       
    PART-1-1.415629        0.0114779         0.657408          125.955       NO       
    PART-1-1.415630        0.0140402          0.65965          116.794       NO       
    PART-1-1.415631       0.00840408         0.616605          134.276       NO       
    PART-1-1.415632        0.0115066         0.659074          125.956       NO       
    PART-1-1.415633        0.0163195         0.659305          105.972       NO       
    PART-1-1.415634        0.0176843           0.6617          93.8668       NO       
    PART-1-1.415635        0.0134207         0.639182          117.553       NO       
    PART-1-1.415636        0.0163664         0.661209          105.972       NO       
    PART-1-1.415637           0.0103         0.618089          127.736       NO       
    PART-1-1.415638        0.0134717         0.641386          117.533       NO       
    PART-1-1.415639       0.00811758         0.616723          135.272       NO       
    PART-1-1.415640        0.0103253         0.619644          127.738       NO       
    PART-1-1.415641        0.0154654         0.640433          108.236       NO       
    PART-1-1.415642        0.0177525         0.664283          93.8845       NO       
    PART-1-1.415643        0.0127776         0.618835          118.454       NO       
    PART-1-1.415644        0.0154986         0.641976          108.258       NO       
    PART-1-1.415645        0.0106351         0.618889          126.587       NO       
    PART-1-1.415646        0.0128292         0.620871          118.414       NO       
    PART-1-1.415647       0.00760499         0.598354          136.247       NO       
    PART-1-1.415648        0.0106656         0.620682          126.588       NO       
    PART-1-1.415649        0.0164216         0.663492          105.979       NO       
    PART-1-1.415650        0.0183484          0.68642          93.7791       NO       
    PART-1-1.415651        0.0140844         0.662455          116.854       NO       
    PART-1-1.415652        0.0164572         0.664937          105.979       NO       
    PART-1-1.415653        0.0103498         0.620813          127.719       NO       
    PART-1-1.415654        0.0141375         0.664734          116.835       NO       
    PART-1-1.415655       0.00843053         0.619932          134.339       NO       
    PART-1-1.415656        0.0103793         0.622617           127.72       NO       
    PART-1-1.415657        0.0167249         0.665219          104.356       NO       
    PART-1-1.415658        0.0178163         0.666716          93.9101       NO       
    PART-1-1.415659        0.0140991         0.663451          116.879       NO       
    PART-1-1.415660         0.016772          0.66698          104.336       NO       
    PART-1-1.415661        0.0109514         0.642655          126.893       NO       
    PART-1-1.415662        0.0141445         0.665614           116.88       NO       
    PART-1-1.415663       0.00818691          0.62186          135.263       NO       
    PART-1-1.415664        0.0109921         0.644712          126.873       NO       
    PART-1-1.415665        0.0158757          0.64529          106.564       NO       
    PART-1-1.415666        0.0178787         0.669085          93.9279       NO       
    PART-1-1.415667        0.0122567         0.602792          119.251       NO       
    PART-1-1.415668        0.0159159         0.647092          106.587       NO       
    PART-1-1.415669        0.0100774         0.602175          127.589       NO       
    PART-1-1.415670        0.0122877         0.604334          119.251       NO       
    PART-1-1.415671       0.00762606         0.601753          136.324       NO       
    PART-1-1.415672        0.0101272         0.604498          127.548       NO       
    PART-1-1.415673          0.01559           0.6257           105.33       NO       
    PART-1-1.415674        0.0180159         0.670603          90.3986       NO       
    PART-1-1.415675        0.0129029         0.625434          118.495       NO       
    PART-1-1.415676         0.015641          0.62776          105.331       NO       
    PART-1-1.415677        0.0100308         0.623964          129.019       NO       
    PART-1-1.415678        0.0129558         0.627516          118.454       NO       
    PART-1-1.415679       0.00820297         0.624318          135.318       NO       
    PART-1-1.415680        0.0100813         0.626387          128.978       NO       
    PART-1-1.415681        0.0168377         0.670123          104.422       NO       
    PART-1-1.415682        0.0179671         0.672474          93.9717       NO       
    PART-1-1.415683        0.0145723         0.668898           115.45       NO       
    PART-1-1.415684        0.0168964         0.672219          104.381       NO       
    PART-1-1.415685        0.0120106         0.668996          124.838       NO       
    PART-1-1.415686        0.0146249         0.670858          115.408       NO       
    PART-1-1.415687       0.00852096         0.626492          134.332       NO       
    PART-1-1.415688        0.0120455         0.670958          124.839       NO       
    PART-1-1.415689        0.0162677         0.650181          104.884       NO       
    PART-1-1.415690        0.0174287         0.652543          94.1108       NO       
    PART-1-1.415691         0.014333         0.649945          114.725       NO       
    PART-1-1.415692        0.0163251         0.652232          104.844       NO       
    PART-1-1.415693        0.0107768          0.62765          126.614       NO       
    PART-1-1.415694        0.0143822         0.651969          114.704       NO       
    PART-1-1.415695       0.00821297         0.626792          135.393       NO       
    PART-1-1.415696        0.0108116         0.629715          126.616       NO       
    PART-1-1.415697        0.0168829         0.672374          104.493       NO       
    PART-1-1.415698        0.0181673         0.676244          90.4015       NO       
    PART-1-1.415699        0.0130133          0.63026           118.45       NO       
    PART-1-1.415700        0.0169446         0.674848          104.494       NO       
    PART-1-1.415701         0.010819         0.629997          126.607       NO       
    PART-1-1.415702        0.0130589         0.632237          118.429       NO       
    PART-1-1.415703       0.00769581         0.607661          136.339       NO       
    PART-1-1.415704        0.0108541         0.632083          126.608       NO       
    PART-1-1.415705        0.0163509         0.653534          104.887       NO       
    PART-1-1.415706        0.0175978         0.656314          92.3011       NO       
    PART-1-1.415707        0.0140297         0.652906          116.259       NO       
    PART-1-1.415708        0.0164048         0.655702          104.888       NO       
    PART-1-1.415709        0.0108307         0.631379          126.648       NO       
    PART-1-1.415710        0.0140812         0.654842          116.217       NO       
    PART-1-1.415711       0.00856275         0.631078          134.399       NO       
    PART-1-1.415712        0.0108698         0.633704           126.65       NO       
    PART-1-1.415713        0.0163927         0.655216          104.888       NO       
    PART-1-1.415714        0.0182061         0.678893          92.1859       NO       
    PART-1-1.415715        0.0140776         0.654598          116.211       NO       
    PART-1-1.415716        0.0164469         0.657395          104.889       NO       
    PART-1-1.415717        0.0107722         0.653557          128.117       NO       
    PART-1-1.415718        0.0141398         0.657029          116.169       NO       
    PART-1-1.415719       0.00827107         0.631848          135.418       NO       
    PART-1-1.415720         0.010807         0.655725          128.119       NO       
    PART-1-1.415721        0.0158371         0.656514          108.318       NO       
    PART-1-1.415722        0.0176209         0.659795          94.1371       NO       
    PART-1-1.415723          0.01335         0.655962          119.178       NO       
    PART-1-1.415724        0.0158955         0.658787          108.297       NO       
    PART-1-1.415725       0.00955846         0.612834          130.062       NO       
    PART-1-1.415726         0.013394          0.65816          119.179       NO       
    PART-1-1.415727       0.00773507         0.611866          136.385       NO       
    PART-1-1.415728       0.00957876         0.614179          130.064       NO       
    PART-1-1.415729        0.0164782         0.658794          104.912       NO       
    PART-1-1.415730        0.0176601         0.661268          94.1381       NO       
    PART-1-1.415731        0.0131225         0.636753          118.545       NO       
    PART-1-1.415732        0.0165332         0.661006          104.912       NO       
    PART-1-1.415733        0.0108847         0.635521          126.705       NO       
    PART-1-1.415734        0.0131606         0.638638          118.547       NO       
    PART-1-1.415735       0.00861151         0.635259          134.423       NO       
    PART-1-1.415736        0.0109269         0.637291          126.663       NO       
    PART-1-1.415737        0.0165147         0.660263          104.913       NO       
    PART-1-1.415738        0.0183645         0.684889          92.2671       NO       
    PART-1-1.415739        0.0141833         0.659829          116.235       NO       
    PART-1-1.415740         0.016576         0.662727          104.914       NO       
    PART-1-1.415741        0.0115538         0.658807           125.78       NO       
    PART-1-1.415742        0.0142273         0.661665          116.216       NO       
    PART-1-1.415743       0.00831829         0.636051          135.442       NO       
    PART-1-1.415744        0.0115973         0.660961          125.759       NO       
    PART-1-1.415745        0.0171698         0.683713          104.473       NO       
    PART-1-1.415746        0.0183956         0.685989          92.2115       NO       
    PART-1-1.415747        0.0142074         0.661538          116.286       NO       
    PART-1-1.415748        0.0172339          0.68628          104.474       NO       
    PART-1-1.415749        0.0109448         0.639282          126.718       NO       
    PART-1-1.415750        0.0142438         0.663266          116.287       NO       
    PART-1-1.415751       0.00836075         0.638409          135.402       NO       
    PART-1-1.415752        0.0109903          0.64161          126.698       NO       
    PART-1-1.415753        0.0165861         0.663638          104.993       NO       
    PART-1-1.415754         0.019047         0.710325          92.2348       NO       
    PART-1-1.415755         0.014616         0.663322          114.768       NO       
    PART-1-1.415756        0.0166415         0.665872          104.995       NO       
    PART-1-1.415757        0.0109546         0.640066          126.731       NO       
    PART-1-1.415758        0.0146589         0.665304           114.77       NO       
    PART-1-1.415759       0.00779772         0.618209          136.443       NO       
    PART-1-1.415760        0.0110042         0.642647          126.711       NO       
    PART-1-1.415761        0.0166279         0.665241          104.981       NO       
    PART-1-1.415762        0.0173311         0.646461          92.3962       NO       
    PART-1-1.415763         0.013881         0.664436          117.811       NO       
    PART-1-1.415764        0.0167005         0.667887          104.939       NO       
    PART-1-1.415765        0.0108944         0.663489          128.249       NO       
    PART-1-1.415766        0.0139321         0.666933          117.814       NO       
    PART-1-1.415767       0.00867023         0.641428          134.503       NO       
    PART-1-1.415768        0.0109323          0.66543          128.228       NO       
    PART-1-1.415769        0.0166766         0.667066          104.961       NO       
    PART-1-1.415770        0.0185562         0.692096          92.3151       NO       
    PART-1-1.415771        0.0132715         0.644374          118.572       NO       
    PART-1-1.415772        0.0167451         0.669827          104.963       NO       
    PART-1-1.415773        0.0106756         0.644237          127.928       NO       
    PART-1-1.415774        0.0133156         0.646551          118.574       NO       
    PART-1-1.415775       0.00840479         0.642909          135.449       NO       
    PART-1-1.415776        0.0107089         0.645887          127.907       NO       
    PART-1-1.415777        0.0167147         0.668745          104.984       NO       
    PART-1-1.415778        0.0186341         0.693663          90.5211       NO       
    PART-1-1.415779        0.0139673         0.668307          117.789       NO       
    PART-1-1.415780        0.0167953         0.671852          104.964       NO       
    PART-1-1.415781        0.0106706         0.645209          127.999       NO       
    PART-1-1.415782        0.0140087         0.670323           117.79       NO       
    PART-1-1.415783        0.0078354         0.622337           136.49       NO       
    PART-1-1.415784        0.0106943         0.646673             128.       NO       
    PART-1-1.415785        0.0167596         0.670691          105.007       NO       
    PART-1-1.415786        0.0186614          0.69601          92.3028       NO       
    PART-1-1.415787        0.0137424         0.649032          117.089       NO       
    PART-1-1.415788        0.0168344         0.673566          104.987       NO       
    PART-1-1.415789        0.0110655         0.647627           126.79       NO       
    PART-1-1.415790        0.0137783         0.650754          117.091       NO       
    PART-1-1.415791       0.00871054         0.645515           134.55       NO       
    PART-1-1.415792        0.0110995          0.64928           126.77       NO       
    PART-1-1.415793        0.0167982         0.672396          105.031       NO       
    PART-1-1.415794        0.0186886          0.69712          92.3869       NO       
    PART-1-1.415795         0.014138         0.650118          115.564       NO       
    PART-1-1.415796        0.0168669         0.675025          105.011       NO       
    PART-1-1.415797         0.011085         0.648628          126.781       NO       
    PART-1-1.415798         0.014188         0.652213          115.545       NO       
    PART-1-1.415799       0.00845914         0.647733          135.475       NO       
    PART-1-1.415800        0.0111235         0.650536          126.761       NO       
    PART-1-1.415801         0.016837         0.674104          105.054       NO       
    PART-1-1.415802        0.0175846            0.656          92.4665       NO       
    PART-1-1.415803        0.0147289         0.695661          117.069       NO       
    PART-1-1.415804        0.0169234         0.677158           104.99       NO       
    PART-1-1.415805         0.011139         0.651313          126.753       NO       
    PART-1-1.415806        0.0147729         0.697776           117.07       NO       
    PART-1-1.415807       0.00788886         0.627247          136.516       NO       
    PART-1-1.415808         0.011168         0.653047          126.754       NO       
    PART-1-1.415809        0.0175088         0.698249          104.626       NO       
    PART-1-1.415810         0.019388         0.723139          92.3117       NO       
    PART-1-1.415811        0.0138206         0.653363          117.141       NO       
    PART-1-1.415812        0.0175816         0.701178          104.628       NO       
    PART-1-1.415813        0.0114067         0.673903          127.131       NO       
    PART-1-1.415814        0.0138621         0.655355          117.143       NO       
    PART-1-1.415815       0.00847018         0.650675          135.564       NO       
    PART-1-1.415816        0.0114507         0.676162           127.11       NO       
    PART-1-1.415817        0.0169263          0.67771          105.057       NO       
    PART-1-1.415818        0.0183097         0.681611          90.5939       NO       
    PART-1-1.415819        0.0141164         0.677037           117.91       NO       
    PART-1-1.415820        0.0170088           0.6809          105.038       NO       
    PART-1-1.415821        0.0111538         0.653857          126.848       NO       
    PART-1-1.415822        0.0141626         0.678998          117.889       NO       
    PART-1-1.415823       0.00880571         0.653086          134.569       NO       
    PART-1-1.415824         0.011183         0.655607           126.85       NO       
[...]
    PART-1-1.617174        0.0390898          1.92113          118.531       NO       
    PART-1-1.617175        0.0495907          1.93259          101.225       NO       
    PART-1-1.617176        0.0395218          1.94417          118.566       NO       
    PART-1-1.617177         0.050229          1.95812          101.255       NO       
    PART-1-1.617178        0.0377457          1.89767          119.667       NO       
    PART-1-1.617179        0.0507349          1.97922          101.335       NO       
    PART-1-1.617180        0.0403988          1.99023          118.616       NO       
    PART-1-1.617181        0.0494089          1.93514          101.868       NO       
    PART-1-1.617182        0.0409746          2.01591          118.535       NO       
    PART-1-1.617183        0.0500366          1.95966           101.85       NO       
    PART-1-1.617184        0.0393063          1.97209          119.529       NO       
    PART-1-1.617185        0.0521127          2.06188          103.014       NO       
    PART-1-1.617186        0.0409551          2.07226          119.883       NO       
    PART-1-1.617187        0.0484931          1.94217          104.409       NO       
    PART-1-1.617188        0.0426491          2.09281          118.361       NO       
    PART-1-1.617189        0.0534416          2.11312          102.912       NO       
    PART-1-1.617190         0.040713          2.04189          119.473       NO       
    PART-1-1.617191        0.0546368          2.12871           101.08       NO       
    PART-1-1.617192        0.0425864          2.15209           119.78       NO       
    PART-1-1.617193        0.0503853          2.01676          104.306       NO       
    PART-1-1.617194        0.0419646          2.09992          119.332       NO       
    PART-1-1.617195         0.053976           2.1119          101.641       NO       
    PART-1-1.617196        0.0424484          2.12562          119.353       NO       
    PART-1-1.617197        0.0540047          2.14659          103.483       NO       
    PART-1-1.617198        0.0444548          2.23982           119.59       NO       
    PART-1-1.617199        0.0577654          2.24887          100.908       NO       
    PART-1-1.617200        0.0425456          2.19359          120.702       NO       
    PART-1-1.617201        0.0532353          2.12938          104.171       NO       
    PART-1-1.617202        0.0444133          2.21891          119.191       NO       
    PART-1-1.617203        0.0563361          2.23772          103.356       NO       
    PART-1-1.617204        0.0464205          2.33708          119.502       NO       
    PART-1-1.617205        0.0595921          2.35227          102.577       NO       
    PART-1-1.617206        0.0444241          2.28679          120.579       NO       
    PART-1-1.617207        0.0587142          2.29603          101.466       NO       
    PART-1-1.617208        0.0463646           2.3163          119.137       NO       
    PART-1-1.617209        0.0595784          2.32981          101.446       NO       
    PART-1-1.617210        0.0458218          2.35821           120.53       NO       
    PART-1-1.617211        0.0572736          2.28912          103.999       NO       
    PART-1-1.617212        0.0467261           2.3984          120.386       NO       
    PART-1-1.617213        0.0607615          2.41148          103.164       NO       
    PART-1-1.617214        0.0473145          2.43265          120.445       NO       
    PART-1-1.617215        0.0591903          2.36322          103.844       NO       
    PART-1-1.617216        0.0483141          2.47503          120.253       NO       
    PART-1-1.617217        0.0627304          2.48764          103.031       NO       
    PART-1-1.617218        0.0489485          2.51161          120.309       NO       
    PART-1-1.617219        0.0637029          2.52756          103.068       NO       
    PART-1-1.617220        0.0498751          2.55454          120.202       NO       
    PART-1-1.617221        0.0620435           2.4754          103.706       NO       
    PART-1-1.617222        0.0507405          2.59536          120.117       NO       
    PART-1-1.617223        0.0632244          2.51974          103.561       NO       
    PART-1-1.617224        0.0504444          2.65338          121.364       NO       
    PART-1-1.617225        0.0679584           2.7682          105.613       NO       
    PART-1-1.617226        0.0524631          2.68145          120.035       NO       
    PART-1-1.617227        0.0642359          2.60923          105.438       NO       
    PART-1-1.617228        0.0501527          2.62589          121.172       NO       
    PART-1-1.617229        0.0661755          2.63805          103.522       NO       
    PART-1-1.617230        0.0529102          2.78278          121.289       NO       
    PART-1-1.617231        0.0733223          2.88759          101.994       NO       
    PART-1-1.617232        0.0552871          2.82452          119.937       NO       
    PART-1-1.617233        0.0687752           2.7405          103.416       NO       
    PART-1-1.617234        0.0530626          2.77326          121.012       NO       
    PART-1-1.617235        0.0729464           2.8914          102.743       NO       
    PART-1-1.617236        0.0558026          2.93932          121.272       NO       
    PART-1-1.617237        0.0713671          2.84387           103.36       NO       
    PART-1-1.617238        0.0572953          3.00703          121.073       NO       
    PART-1-1.617239        0.0750829          3.02142          104.283       NO       
    PART-1-1.617240        0.0562724          2.93849          120.883       NO       
    PART-1-1.617241         0.074204          2.95759          103.318       NO       
    PART-1-1.617242        0.0594466           3.1211          121.028       NO       
    PART-1-1.617243        0.0734207          3.03751          106.854       NO       
    PART-1-1.617244        0.0570926          3.06832          122.081       NO       
    PART-1-1.617245        0.0794133          3.19729          104.232       NO       
    PART-1-1.617246        0.0595447          3.11152          120.821       NO       
    PART-1-1.617247        0.0739707          3.02522          105.838       NO       
    PART-1-1.617248         0.063182          3.30482           120.76       NO       
    PART-1-1.617249        0.0873284          3.43409          101.486       NO       
    PART-1-1.617250        0.0605388          3.25993          122.062       NO       
    PART-1-1.617251        0.0820298          3.26932          103.128       NO       
    PART-1-1.617252        0.0620274          3.33806          121.993       NO       
    PART-1-1.617253         0.077702          3.24735          107.586       NO       
    PART-1-1.617254        0.0676877          3.53671          120.584       NO       
    PART-1-1.617255         0.082379           3.2938          103.458       NO       
    PART-1-1.617256        0.0656997          3.50253          121.495       NO       
    PART-1-1.617257        0.0921122          3.63456          101.773       NO       
    PART-1-1.617258        0.0671712          3.58864          121.541       NO       
    PART-1-1.617259        0.0876458          3.61615          106.282       NO       
    PART-1-1.617260        0.0684731           3.6609          121.533       NO       
    PART-1-1.617261        0.0911614          3.68717          104.399       NO       
    PART-1-1.617262        0.0703098          3.75454          121.429       NO       
    PART-1-1.617263        0.0973981           3.9127          103.579       NO       
    PART-1-1.617264        0.0700097          3.86444          122.772       NO       
    PART-1-1.617265         0.094116          3.88736          106.218       NO       
    PART-1-1.617266        0.0736529          3.94189          121.422       NO       
    PART-1-1.617267        0.0980749          3.97071          104.326       NO       
    PART-1-1.617268        0.0756175          4.04543          121.348       NO       
    PART-1-1.617269        0.0962695           3.9248          105.018       NO       
    PART-1-1.617270        0.0762011          4.18478          122.383       NO       
    PART-1-1.617271        0.0975477          4.05857          106.741       NO       
    PART-1-1.617272        0.0806911          4.28229          120.864       NO       
    PART-1-1.617273         0.111346          4.46071          102.955       NO       
    PART-1-1.617274        0.0754639          4.26391          123.499       NO       
    PART-1-1.617275         0.111314           4.4221          102.065       NO       
    PART-1-1.617276        0.0851201          4.54411          120.976       NO       
    PART-1-1.617277         0.113401          4.58625          103.842       NO       
    PART-1-1.617278        0.0857585          4.71657          122.146       NO       
    PART-1-1.617279          0.10997          4.57535           106.43       NO       
    PART-1-1.617280        0.0913578          4.84278          120.497       NO       
    PART-1-1.617281         0.118875          4.89357          105.314       NO       
    PART-1-1.617282         0.085743          4.83288          123.082       NO       
    PART-1-1.617283         0.122357          5.04382          105.343       NO       
    PART-1-1.617284        0.0943374          5.17353          121.767       NO       
    PART-1-1.617285          0.13082           5.1916          101.452       NO       
    PART-1-1.617286        0.0942397          5.15638          121.682       NO       
    PART-1-1.617287         0.129844          5.19064          102.262       NO       
    PART-1-1.617288         0.102597           5.6086          121.385       NO       
    PART-1-1.617289          0.13142          5.45446          105.682       NO       
    PART-1-1.617290         0.100304          5.62136          122.403       NO       
    PART-1-1.617291          0.14257          5.87057          104.723       NO       
    PART-1-1.617292         0.110632          6.04078          121.085       NO       
    PART-1-1.617293         0.148511          6.10818          104.466       NO       
    PART-1-1.617294         0.107897          6.06622          122.274       NO       
    PART-1-1.617295         0.147318          6.12354          105.387       NO       
    PART-1-1.617296         0.112472          6.31557          122.079       NO       
    PART-1-1.617297         0.153442          6.37824          105.224       NO       
    PART-1-1.617298         0.126066          6.85356          120.422       NO       
    PART-1-1.617299         0.168642           6.9298          103.841       NO       
    PART-1-1.617300         0.123409          6.91209          121.625       NO       
    PART-1-1.617301         0.163553          6.70429          103.767       NO       
    PART-1-1.617302         0.131425          7.29536           121.03       NO       
    PART-1-1.617303         0.173496          7.08433          103.146       NO       
    PART-1-1.617304         0.137767          7.80688           121.56       NO       
    PART-1-1.617305         0.198805          8.13076          102.572       NO       
    PART-1-1.617306         0.148239          8.18157          120.257       NO       
    PART-1-1.617307          0.20935          8.58418          102.494       NO       
    PART-1-1.617308         0.155392          8.63264          120.251       NO       
    PART-1-1.617309         0.224094          9.05196          100.661       NO       
    PART-1-1.617310         0.161473          9.28387          121.228       NO       
    PART-1-1.617311         0.211982          9.08865          105.906       NO       
    PART-1-1.617312         0.178104          9.83077          119.234       NO       
  
 --------------------------------------------------------------------------------
 Elements with large aspect ratio
  
      Element       Adjusted nodes 
 ------------------ -------------- 
    PART-1-1.867330       NO       
    PART-1-1.867331       NO       
    PART-1-1.867332       NO       
  
  
  *Step, name="Loading Step", nlgeom=NO
  *Step, name="Loading Step", nlgeom=NO
  *Step, name="Loading Step", nlgeom=NO
  *static
  *temperature
  *output, field, variable=PRESELECT
  *output, history, variable=PRESELECT
  *endstep
  *boundary
  *boundary
  *boundary
  *Step, name="Loading Step", nlgeom=NO
  *static
  *temperature
  *contourintegral, crackname=H-OUTPUT-2_CRACK-1, contours=10, cracktipnodes
  *endstep

     THE CALCULATED NODAL NORMALS ON CRACK SURFACES

          4978       -0.70711      0.70711    

          4979       -0.70711      0.70711    

          4983       -0.70703      0.70718    

          4984       -0.70703      0.70718    

          4985       -0.70710      0.70711    

          4986       -0.70710      0.70711    

          4987       -0.70711      0.70710    

        894414       -0.70711      0.70711    

        894415       -0.70711      0.70711    

        894419       -0.70703      0.70718    

        894420       -0.70703      0.70718    

        894421       -0.70710      0.70711    

        894422       -0.70710      0.70711    

        894423       -0.70711      0.70710    



                            P R O B L E M   S I Z E


          NUMBER OF ELEMENTS IS                                896762
          NUMBER OF NODES IS                                   894423
          NUMBER OF NODES DEFINED BY THE USER                  894423
          TOTAL NUMBER OF VARIABLES IN THE MODEL              1788846
          (DEGREES OF FREEDOM PLUS MAX NO. OF ANY LAGRANGE MULTIPLIER
           VARIABLES. INCLUDE *PRINT,SOLVE=YES TO GET THE ACTUAL NUMBER.)



                              END OF USER INPUT PROCESSING



     JOB TIME SUMMARY
       USER TIME (SEC)      =   77.900    
       SYSTEM TIME (SEC)    =   3.0000    
       TOTAL CPU TIME (SEC) =   80.900    
       WALLCLOCK TIME (SEC) =         84
1

   Abaqus 3DEXPERIENCE R2016x                                  Date 03-Mar-2017   Time 09:08:07
   For use at UNIVERSITY OF CENTRAL FLORIDA under license from Dassault Systemes or its subsidiary.

                                                                                               STEP    1  INCREMENT    1
                                                                                          TIME COMPLETED IN THIS STEP   0.00    


                        S T E P       1     S T A T I C   A N A L Y S I S


                                                                                          

     AUTOMATIC TIME CONTROL WITH -
          A SUGGESTED INITIAL TIME INCREMENT OF                 1.00    
          AND A TOTAL TIME PERIOD OF                            1.00    
          THE MINIMUM TIME INCREMENT ALLOWED IS                1.000E-05
          THE MAXIMUM TIME INCREMENT ALLOWED IS                 1.00    

     LINEAR EQUATION SOLVER TYPE         DIRECT SPARSE
  
                   M E M O R Y   E S T I M A T E
  
 PROCESS      FLOATING PT       MINIMUM MEMORY        MEMORY TO
              OPERATIONS           REQUIRED          MINIMIZE I/O
             PER ITERATION           (MB)               (MB)
  
     1         1.48E+011             1113               3382
  
 NOTE:
      (1) SINCE ABAQUS DOES NOT PRE-ALLOCATE MEMORY AND ONLY ALLOCATES MEMORY AS NEEDED DURING THE ANALYSIS,
          THE MEMORY REQUIREMENT PRINTED HERE CAN ONLY BE VIEWED AS A GENERAL GUIDELINE BASED ON THE BEST
          KNOWLEDGE AVAILABLE AT THE BEGINNING OF A STEP BEFORE THE SOLUTION PROCESS HAS BEGUN.
      (2) THE ESTIMATE IS NORMALLY UPDATED AT THE BEGINNING OF EVERY STEP. IT IS THE MAXIMUM VALUE OF THE
          ESTIMATE FROM THE CURRENT STEP TO THE LAST STEP OF THE ANALYSIS, WITH UNSYMMETRIC SOLUTION TAKEN
          INTO ACCOUNT IF APPLICABLE. 
      (3) SINCE THE ESTIMATE IS BASED ON THE ACTIVE DEGREES OF FREEDOM IN THE FIRST ITERATION OF THE 
          CURRENT STEP, THE MEMORY ESTIMATE MIGHT BE SIGNIFICANTLY DIFFERENT THAN ACTUAL USAGE FOR 
          PROBLEMS WITH SUBSTANTIAL CHANGES IN ACTIVE DEGREES OF FREEDOM BETWEEN STEPS (OR EVEN WITHIN
          THE SAME STEP). EXAMPLES ARE: PROBLEMS WITH SIGNIFICANT CONTACT CHANGES, PROBLEMS WITH MODEL
          CHANGE, PROBLEMS WITH BOTH STATIC STEP AND STEADY STATE DYNAMIC PROCEDURES WHERE ACOUSTIC 
          ELEMENTS WILL ONLY BE ACTIVATED IN THE STEADY STATE DYNAMIC STEPS.
      (4) FOR MULTI-PROCESS EXECUTION, THE ESTIMATED VALUE OF FLOATING POINT OPERATIONS FOR EACH PROCESS
          IS BASED ON AN INITIAL SCHEDULING OF OPERATIONS AND MIGHT NOT REFLECT THE ACTUAL FLOATING 
          POINT OPERATIONS COMPLETED ON EACH PROCESS. OPERATIONS ARE DYNAMICALLY BALANCED DURING EXECUTION, 
          SO THE ACTUAL BALANCE OF OPERATIONS BETWEEN PROCESSES IS EXPECTED TO BE BETTER THAN THE ESTIMATE
          PRINTED HERE.
      (5) THE UPPER LIMIT OF MEMORY THAT CAN BE ALLOCATED BY ABAQUS WILL IN GENERAL DEPEND ON THE VALUE OF
          THE "MEMORY" PARAMETER AND THE AMOUNT OF PHYSICAL MEMORY AVAILABLE ON THE MACHINE. PLEASE SEE
          THE "ABAQUS ANALYSIS USER'S MANUAL" FOR MORE DETAILS. THE ACTUAL USAGE OF MEMORY AND OF DISK
          SPACE FOR SCRATCH DATA WILL DEPEND ON THIS UPPER LIMIT AS WELL AS THE MEMORY REQUIRED TO MINIMIZE
          I/O. IF THE MEMORY UPPER LIMIT IS GREATER THAN THE MEMORY REQUIRED TO MINIMIZE I/O, THEN THE ACTUAL
          MEMORY USAGE WILL BE CLOSE TO THE ESTIMATED "MEMORY TO MINIMIZE I/O" VALUE, AND THE SCRATCH DISK
          USAGE WILL BE CLOSE-TO-ZERO; OTHERWISE, THE ACTUAL MEMORY USED WILL BE CLOSE TO THE PREVIOUSLY
          MENTIONED MEMORY LIMIT, AND THE SCRATCH DISK USAGE WILL BE ROUGHLY PROPORTIONAL TO THE DIFFERENCE
          BETWEEN THE ESTIMATED "MEMORY TO MINIMIZE I/O" AND THE MEMORY UPPER LIMIT. HOWEVER ACCURATE
          ESTIMATE OF THE SCRATCH DISK SPACE IS NOT POSSIBLE.
      (6) USING "*RESTART, WRITE" CAN GENERATE A LARGE AMOUNT OF DATA WRITTEN IN THE WORK DIRECTORY.


                                INCREMENT     1 SUMMARY


 TIME INCREMENT COMPLETED   1.00    ,  FRACTION OF STEP COMPLETED   1.00    
 STEP TIME COMPLETED        1.00    ,  TOTAL TIME COMPLETED         1.00    



                              J - I N T E G R A L   E S T I M A T E S

   CRACK        CRACKFRONT          C O N T O U R S
   NAME         NODE SET
                                     1               2               3               4               5
                                     6               7               8               9              10


   H-OUTPUT-2_CRACK-1
                   -4-                1.230           2.582           2.432           2.435           2.439    
                                      2.438           2.438           2.438           2.438           2.438    



     LABELS REFERENCED IN THE ABOVE TABLE

      -4-      ASSEMBLY__PICKEDSET172                                                          


          THE ANALYSIS HAS BEEN COMPLETED



                              ANALYSIS COMPLETE
                              WITH      2 WARNING MESSAGES ON THE DAT FILE



     JOB TIME SUMMARY
       USER TIME (SEC)      =   279.50    
       SYSTEM TIME (SEC)    =   45.900    
       TOTAL CPU TIME (SEC) =   325.40    
       WALLCLOCK TIME (SEC) =         74
